Version 4
SHEET 1 1936 1128
WIRE -352 -432 -384 -432
WIRE -240 -432 -288 -432
WIRE -192 -432 -240 -432
WIRE -96 -432 -128 -432
WIRE -48 -432 -96 -432
WIRE 32 -432 16 -432
WIRE 80 -432 32 -432
WIRE -464 -368 -496 -368
WIRE -240 -368 -384 -368
WIRE 976 -256 976 -288
WIRE 1072 -256 976 -256
WIRE -464 -240 -496 -240
WIRE -96 -240 -96 -368
WIRE -96 -240 -384 -240
WIRE 416 -224 416 -256
WIRE 560 -224 560 -256
WIRE 976 -224 976 -256
WIRE 1072 -224 1072 -256
WIRE 416 -128 416 -160
WIRE 496 -128 416 -128
WIRE 560 -128 560 -160
WIRE 560 -128 496 -128
WIRE 976 -128 976 -144
WIRE 1072 -128 1072 -160
WIRE 1072 -128 976 -128
WIRE 976 -112 976 -128
WIRE -368 -96 -384 -96
WIRE -272 -96 -288 -96
WIRE 496 -96 496 -128
WIRE -384 48 -384 -96
WIRE -368 48 -384 48
WIRE -272 48 -288 48
WIRE -384 144 -384 48
WIRE 1168 496 1120 496
WIRE 1168 512 1168 496
WIRE -144 672 -144 656
WIRE 528 672 528 656
WIRE 1168 672 1120 672
WIRE 1168 688 1168 672
WIRE 16 704 16 640
WIRE 688 704 688 640
WIRE -64 752 -144 752
WIRE 608 752 528 752
WIRE -144 768 -144 752
WIRE 528 768 528 752
WIRE -320 816 -352 816
WIRE -208 816 -240 816
WIRE 352 816 320 816
WIRE 464 816 432 816
WIRE 16 832 16 800
WIRE 688 832 688 800
WIRE 1168 832 1120 832
WIRE 1168 848 1168 832
WIRE -144 976 -144 864
WIRE 528 976 528 864
FLAG -272 48 POW1_V+
IOPIN -272 48 Out
FLAG 416 -256 POW0_V+
IOPIN 416 -256 In
FLAG 976 -112 0
FLAG 16 640 POW0_V+
IOPIN 16 640 In
FLAG -384 -432 POW01_V+
IOPIN -384 -432 In
FLAG 80 -432 BOOST_V+
IOPIN 80 -432 Out
FLAG 32 -368 0
FLAG -352 816 DIS0
IOPIN -352 816 In
FLAG -144 656 BOOST_V+
IOPIN -144 656 In
FLAG -144 976 0
FLAG -496 -368 0
FLAG 496 -96 POW01_V+
IOPIN 496 -96 Out
FLAG -176 1056 0
FLAG -96 1056 MCU_EN0
IOPIN -96 1056 Out
FLAG -496 -240 0
FLAG 560 -256 POW1_V+
IOPIN 560 -256 In
FLAG -272 -96 POW0_V+
IOPIN -272 -96 Out
FLAG 976 -288 LOAD_V+
IOPIN 976 -288 In
FLAG 16 832 LOAD_V+
IOPIN 16 832 Out
FLAG 688 640 POW1_V+
IOPIN 688 640 In
FLAG 528 656 BOOST_V+
IOPIN 528 656 In
FLAG 496 1056 0
FLAG 576 1056 MCU_EN1
IOPIN 576 1056 Out
FLAG 688 832 LOAD_V+
IOPIN 688 832 Out
FLAG 320 816 DIS1
IOPIN 320 816 In
FLAG 528 976 0
FLAG -288 240 LOGIC_V+
IOPIN -288 240 Out
FLAG -368 240 0
FLAG -384 144 0
FLAG 1168 608 0
FLAG 1120 544 MCU_EN0
IOPIN 1120 544 In
FLAG 1120 576 MCU_EN1
IOPIN 1120 576 In
FLAG 1232 560 XCOND_EN
IOPIN 1232 560 Out
FLAG 1168 784 0
FLAG 1120 720 MCU_EN0
IOPIN 1120 720 In
FLAG 1120 752 XCOND_EN
IOPIN 1120 752 In
FLAG 1232 736 DIS0
IOPIN 1232 736 Out
FLAG 1120 672 LOGIC_V+
IOPIN 1120 672 In
FLAG 1168 944 0
FLAG 1120 880 MCU_EN1
IOPIN 1120 880 In
FLAG 1120 912 XCOND_EN
IOPIN 1120 912 In
FLAG 1232 896 DIS1
IOPIN 1232 896 Out
FLAG 1120 832 LOGIC_V+
IOPIN 1120 832 In
FLAG 1120 496 LOGIC_V+
IOPIN 1120 496 In
SYMBOL voltage -272 48 R90
WINDOW 0 -32 56 VBottom 2
WINDOW 3 32 56 VTop 2
WINDOW 123 0 0 Left 2
WINDOW 39 0 0 Left 2
SYMATTR InstName V2
SYMATTR Value 11
SYMBOL EXTRA\\IRF\\NMOSFET\\irf540n -16 752 R0
SYMATTR InstName U1
SYMBOL schottky 400 -224 R0
SYMATTR InstName D1
SYMATTR Value 1N5817
SYMATTR Description Diode
SYMATTR Type diode
SYMBOL schottky 544 -224 R0
SYMATTR InstName D2
SYMATTR Value 1N5817
SYMATTR Description Diode
SYMATTR Type diode
SYMBOL polcap -256 -432 R0
WINDOW 3 24 56 Left 2
SYMATTR InstName C1
SYMATTR Value 10µ
SYMATTR Description Capacitor
SYMATTR Type cap
SYMATTR SpiceLine V=25 Irms=39m Rser=2.8 Lser=0 mfg="Nichicon" pn="UPR1E100MAH" type="Al electrolytic"
SYMBOL polcap -112 -432 R0
WINDOW 3 24 56 Left 2
SYMATTR InstName C2
SYMATTR Value 10µ
SYMATTR Description Capacitor
SYMATTR Type cap
SYMATTR SpiceLine V=25 Irms=145m Rser=0.62 Lser=0
SYMBOL schottky -352 -416 R270
WINDOW 0 32 32 VTop 2
WINDOW 3 0 32 VBottom 2
SYMATTR InstName D3
SYMATTR Value BAT54
SYMATTR Description Diode
SYMATTR Type diode
SYMBOL schottky -192 -416 R270
WINDOW 0 32 32 VTop 2
WINDOW 3 0 32 VBottom 2
SYMATTR InstName D4
SYMATTR Value BAT54
SYMATTR Description Diode
SYMATTR Type diode
SYMBOL npn -208 768 R0
SYMATTR InstName Q2
SYMATTR Value 2N2222
SYMBOL res -224 800 R90
WINDOW 0 0 56 VBottom 2
WINDOW 3 32 56 VTop 2
SYMATTR InstName R2
SYMATTR Value 100K
SYMBOL res -160 656 R0
SYMATTR InstName R4
SYMATTR Value 10K
SYMBOL voltage -368 -368 R90
WINDOW 0 -32 56 VBottom 2
WINDOW 3 32 56 VTop 2
WINDOW 123 0 0 Left 2
WINDOW 39 0 0 Left 2
SYMATTR InstName V3
SYMATTR Value PULSE(0 3 0 0.000001 0.000001 0.00005 0.0001)
SYMBOL voltage -80 1056 R90
WINDOW 0 -32 56 VBottom 2
WINDOW 3 32 56 VTop 2
WINDOW 123 0 0 Left 2
WINDOW 39 0 0 Left 2
SYMATTR InstName V4
SYMATTR Value PULSE(0 3 0.02 0.000001 0.000001 0.002 0.002 1)
SYMBOL schottky -48 -416 R270
WINDOW 0 32 32 VTop 2
WINDOW 3 0 32 VBottom 2
SYMATTR InstName D5
SYMATTR Value BAT54
SYMATTR Description Diode
SYMATTR Type diode
SYMBOL voltage -368 -240 R90
WINDOW 0 -32 56 VBottom 2
WINDOW 3 32 56 VTop 2
WINDOW 123 0 0 Left 2
WINDOW 39 0 0 Left 2
SYMATTR InstName V5
SYMATTR Value PULSE(0 3 0.00005 0.000001 0.000001 0.00005 0.0001)
SYMBOL polcap 16 -432 R0
WINDOW 3 24 56 Left 2
SYMATTR InstName C3
SYMATTR Value 100µ
SYMATTR Description Capacitor
SYMATTR Type cap
SYMATTR SpiceLine V=25 Irms=145m Rser=0.62 Lser=0 mfg="Nichicon" pn="UPR1E101MPH" type="Al electrolytic"
SYMBOL voltage -272 -96 R90
WINDOW 0 -32 56 VBottom 2
WINDOW 3 -4 56 VBottom 2
WINDOW 123 0 0 Left 2
WINDOW 39 0 0 Left 2
SYMATTR InstName V6
SYMATTR Value 14
SYMBOL polcap 1056 -224 R0
WINDOW 3 24 56 Left 2
SYMATTR InstName C4
SYMATTR Value 100µ
SYMATTR Description Capacitor
SYMATTR Type cap
SYMATTR SpiceLine V=25 Irms=145m Rser=0.62 Lser=0 mfg="Nichicon" pn="UPR1E101MPH" type="Al electrolytic"
SYMBOL res 960 -240 R0
SYMATTR InstName R6
SYMATTR Value 10
SYMBOL EXTRA\\IRF\\NMOSFET\\irf540n 656 752 R0
SYMATTR InstName U2
SYMBOL res 512 656 R0
SYMATTR InstName R3
SYMATTR Value 10K
SYMBOL voltage 592 1056 R90
WINDOW 0 -32 56 VBottom 2
WINDOW 3 32 56 VTop 2
WINDOW 123 0 0 Left 2
WINDOW 39 0 0 Left 2
SYMATTR InstName V7
SYMATTR Value PULSE(0 3 0.021 0.000001 0.000001 0.002 0.002 1)
SYMBOL npn 464 768 R0
SYMATTR InstName Q1
SYMATTR Value 2N2222
SYMBOL res 448 800 R90
WINDOW 0 0 56 VBottom 2
WINDOW 3 32 56 VTop 2
SYMATTR InstName R1
SYMATTR Value 100K
SYMBOL voltage -272 240 R90
WINDOW 0 -32 56 VBottom 2
WINDOW 3 32 56 VTop 2
WINDOW 123 0 0 Left 2
WINDOW 39 0 0 Left 2
SYMATTR InstName V8
SYMATTR Value 3
SYMBOL SBORKA\\Logika\\SN74AHC1G00 1168 496 R0
SYMATTR InstName U7
SYMBOL SBORKA\\Logika\\SN74AHC1G00 1168 672 R0
SYMATTR InstName U3
SYMBOL SBORKA\\Logika\\SN74AHC1G00 1168 832 R0
SYMATTR InstName U4
TEXT -404 392 Left 2 !.tran 0 0.1 0
TEXT -392 -496 Left 2 ;Dickson charge pump
TEXT 400 -424 Left 2 ;OR redundancy
TEXT 960 -432 Left 2 ;load
TEXT 984 376 Left 2 ;input: 0 - 5V\noutput: 0 - 5V, 20mA\nno need for amplifier
